{
   "completed_at" : "20190716T221210Z",
   "completed_status" : "Success",
   "created_at" : "20190426T171853Z",
   "current_step" : 30,
   "eplusout_err" : "Program Version,EnergyPlus, Version 9.1.0-08d2e308bb, YMD=2019.07.16 16:11,\n   ************* Beginning Zone Sizing Calculations\n   ** Warning ** Foundation:Kiva=\"FOUNDATION KIVA 1\", no Interior Horizontal Insulation Material Name defined\n   **   ~~~   ** Interior Horizontal Insulation Depth will not be used.\n   ** Warning ** Foundation:Kiva=\"FOUNDATION KIVA 1\", no Exterior Horizontal Insulation Material Name defined\n   **   ~~~   ** Exterior Horizontal Insulation Width will not be used.\n   ** Warning ** Foundation:Kiva=\"FOUNDATION KIVA 1\", no Footing Material Name defined\n   **   ~~~   ** Footing Depth will not be used.\n   ** Warning ** Foundation:Kiva=\"FOUNDATION KIVA 2\", no Interior Horizontal Insulation Material Name defined\n   **   ~~~   ** Interior Horizontal Insulation Depth will not be used.\n   ** Warning ** Foundation:Kiva=\"FOUNDATION KIVA 2\", no Exterior Horizontal Insulation Material Name defined\n   **   ~~~   ** Exterior Horizontal Insulation Width will not be used.\n   ** Warning ** Foundation:Kiva=\"FOUNDATION KIVA 2\", no Footing Material Name defined\n   **   ~~~   ** Footing Depth will not be used.\n   ** Warning ** GetSurfaceData: Entered Zone Floor Areas differ from calculated Zone Floor Area(s).\n   **   ~~~   ** ...use Output:Diagnostics,DisplayExtraWarnings; to show more details on individual zones.\n   ** Warning ** SurfaceProperty:ExposedFoundationPerimeter: SURFACE 28, TOTALEXPOSEDPERIMETER set as calculation method, but a value has been set for Exposed Perimeter Fraction. This value will be ignored.\n   ** Warning ** SurfaceProperty:ExposedFoundationPerimeter: SURFACE 1, TOTALEXPOSEDPERIMETER set as calculation method, but a value has been set for Exposed Perimeter Fraction. This value will be ignored.\n   ************* Note that the following warning(s) may/will occur if you have not enclosed your zone completely.\n   ** Warning ** Entered Zone Volumes differ from calculated zone volume(s).\n   **   ~~~   ** ...use Output:Diagnostics,DisplayExtraWarnings; to show more details on individual zones.\n   ** Severe  ** For zone: UNFINISHED ATTIC ZONE it is not possible to calculate the volume from the surrounding surfaces so either provide the volume value or define all the surfaces to fully enclose the zone.\n   ** Warning ** Indicated Zone Volume <= 0.0 for Zone=UNFINISHED ATTIC ZONE\n   **   ~~~   ** The calculated Zone Volume was=0.00\n   **   ~~~   ** The simulation will continue with the Zone Volume set to 10.0 m3. \n   **   ~~~   ** ...use Output:Diagnostics,DisplayExtraWarnings; to show more details on individual zones.\n   ** Warning ** CalculateZoneVolume: 1 zone is not fully enclosed. For more details use:  Output:Diagnostics,DisplayExtrawarnings; \n   ** Warning ** CheckUsedConstructions: There are 1 nominally unused constructions in input.\n   **   ~~~   ** For explicit details on each unused construction, use Output:Diagnostics,DisplayExtraWarnings;\n   ** Warning ** DetermineShadowingCombinations: There are 1 surfaces which are receiving surfaces and are non-convex.\n   **   ~~~   ** ...Shadowing values may be inaccurate. Check .shd report file for more surface shading details\n   **   ~~~   ** ...Add Output:Diagnostics,DisplayExtraWarnings; to see individual warnings for each surface.\n   ** Severe  ** DetermineShadowingCombinations: There are 1 surfaces which are casting surfaces and are non-convex.\n   **   ~~~   ** ...Shadowing values may be inaccurate. Check .shd report file for more surface shading details\n   **   ~~~   ** ...Add Output:Diagnostics,DisplayExtraWarnings; to see individual severes for each surface.\n   ************* Beginning System Sizing Calculations\n   ************* Beginning Plant Sizing Calculations\n   ** Warning ** The Standard Ratings is calculated for Coil:Cooling:DX:SingleSpeed = RES AC COOLING COIL but not at the AHRI test condition due to curve out of bound.\n   **   ~~~   **  Review the Standard Ratings calculations in the Engineering Reference for this coil type. Also, use Output:Diagnostics, DisplayExtraWarnings for further guidance.\n   ** Warning ** Check input. Pump nominal power or motor efficiency is set to 0, for pump=PUMP VARIABLE SPEED 1\n   ** Warning ** Output:Meter: invalid Key Name=\"DISTRICTCOOLING:FACILITY\" - not found.\n   ** Warning ** Output:Meter: invalid Key Name=\"DISTRICTHEATING:FACILITY\" - not found.\n   ** Warning ** Output:Meter:MeterFileOnly requested for \"Electricity:Facility\" (TimeStep), already on \"Output:Meter\". Will report to both eplusout.eso and eplusout.mtr\n   ************* Testing Individual Branch Integrity\n   ************* All Branches passed integrity testing\n   ************* Testing Individual Supply Air Path Integrity\n   ************* All Supply Air Paths passed integrity testing\n   ************* Testing Individual Return Air Path Integrity\n   ************* All Return Air Paths passed integrity testing\n   ************* No node connection errors were found.\n   ************* Beginning Simulation\n   ** Warning ** CalcDoe2DXCoil: Coil:Cooling:DX:SingleSpeed=\"RES AC COOLING COIL\" - Air volume flow rate per watt of rated total cooling capacity is out of range at 6.909E-005 m3/s/W.\n   **   ~~~   **  Environment=ANN CLG 1% CONDNS DB=>MWB, at Simulation time=07/21 00:00 - 00:10\n   **   ~~~   ** Expected range for VolumeFlowPerRatedTotalCapacity=[2.684E-005--6.713E-005]\n   **   ~~~   ** Possible causes include inconsistent air flow rates in system components,\n   **   ~~~   ** or variable air volume [VAV] system using incorrect coil type.\n   ** Warning ** SimHVAC: Maximum iterations (20) exceeded for all HVAC loops, at RUN PERIOD 1, 01/06 20:50 - 21:00\n   **   ~~~   ** The solution for one or more of the Air Loop HVAC systems did not appear to converge\n   **   ~~~   ** ...use Output:Diagnostics,DisplayExtraWarnings; to show more details on each max iteration exceeded.\n   ** Warning ** SimHVAC: Maximum iterations (20) exceeded for all HVAC loops, at RUN PERIOD 1, 01/06 20:50 - 20:55\n   **   ~~~   ** The solution for one or more of the Air Loop HVAC systems did not appear to converge\n   ** Warning ** SimHVAC: Maximum iterations (20) exceeded for all HVAC loops, at RUN PERIOD 1, 01/26 22:20 - 22:30\n   **   ~~~   ** The solution for one or more of the Air Loop HVAC systems did not appear to converge\n   ** Warning ** SimHVAC: Maximum iterations (20) exceeded for all HVAC loops, at RUN PERIOD 1, 03/05 19:40 - 19:50\n   **   ~~~   ** The solution for one or more of the Air Loop HVAC systems did not appear to converge\n   ** Warning ** SimHVAC: Maximum iterations (20) exceeded for all HVAC loops, at RUN PERIOD 1, 03/29 14:20 - 14:30\n   **   ~~~   ** The solution for one or more of the Air Loop HVAC systems did not appear to converge\n   ** Warning ** SimHVAC: Maximum iterations (20) exceeded for all HVAC loops, at RUN PERIOD 1, 04/01 17:00 - 17:10\n   **   ~~~   ** The solution for one or more of the Air Loop HVAC systems did not appear to converge\n   ** Warning ** SimHVAC: Maximum iterations (20) exceeded for all HVAC loops, at RUN PERIOD 1, 04/01 17:00 - 17:05\n   **   ~~~   ** The solution for one or more of the Air Loop HVAC systems did not appear to converge\n   ** Warning ** SimHVAC: Maximum iterations (20) exceeded for all HVAC loops, at RUN PERIOD 1, 04/03 11:55 - 12:00\n   **   ~~~   ** The solution for one or more of the Air Loop HVAC systems did not appear to converge\n   ** Warning ** SimHVAC: Maximum iterations (20) exceeded for all HVAC loops, at RUN PERIOD 1, 04/06 20:50 - 21:00\n   **   ~~~   ** The solution for one or more of the Air Loop HVAC systems did not appear to converge\n   ** Warning ** SimHVAC: Maximum iterations (20) exceeded for all HVAC loops, at RUN PERIOD 1, 04/08 22:50 - 23:00\n   **   ~~~   ** The solution for one or more of the Air Loop HVAC systems did not appear to converge\n   ** Warning ** SimHVAC: Maximum iterations (20) exceeded for all HVAC loops, at RUN PERIOD 1, 04/11 15:30 - 15:40\n   **   ~~~   ** The solution for one or more of the Air Loop HVAC systems did not appear to converge\n   ** Warning ** SimHVAC: Maximum iterations (20) exceeded for all HVAC loops, at RUN PERIOD 1, 04/13 13:20 - 13:30\n   **   ~~~   ** The solution for one or more of the Air Loop HVAC systems did not appear to converge\n   ** Warning ** SimHVAC: Maximum iterations (20) exceeded for all HVAC loops, at RUN PERIOD 1, 04/28 10:35 - 10:40\n   **   ~~~   ** The solution for one or more of the Air Loop HVAC systems did not appear to converge\n   ** Warning ** SimHVAC: Maximum iterations (20) exceeded for all HVAC loops, at RUN PERIOD 1, 05/02 00:20 - 00:30\n   **   ~~~   ** The solution for one or more of the Air Loop HVAC systems did not appear to converge\n   ** Warning ** The resource referenced by LifeCycleCost:UsePriceEscalation= \"U.S. AVG  COMMERCIAL-ELECTRICITY\" has no energy cost. \n   **   ~~~   ** ... It is likely that the wrong resource is used. The resource should match the meter used in Utility:Tariff.\n   ** Warning ** The resource referenced by LifeCycleCost:UsePriceEscalation= \"U.S. AVG  COMMERCIAL-DISTILLATE OIL\" has no energy cost. \n   **   ~~~   ** ... It is likely that the wrong resource is used. The resource should match the meter used in Utility:Tariff.\n   ** Warning ** The resource referenced by LifeCycleCost:UsePriceEscalation= \"U.S. AVG  COMMERCIAL-RESIDUAL OIL\" has no energy cost. \n   **   ~~~   ** ... It is likely that the wrong resource is used. The resource should match the meter used in Utility:Tariff.\n   ** Warning ** The resource referenced by LifeCycleCost:UsePriceEscalation= \"U.S. AVG  COMMERCIAL-NATURAL GAS\" has no energy cost. \n   **   ~~~   ** ... It is likely that the wrong resource is used. The resource should match the meter used in Utility:Tariff.\n   ** Warning ** The resource referenced by LifeCycleCost:UsePriceEscalation= \"U.S. AVG  COMMERCIAL-COAL\" has no energy cost. \n   **   ~~~   ** ... It is likely that the wrong resource is used. The resource should match the meter used in Utility:Tariff.\n   ************* Simulation Error Summary *************\n   ************* There are 2 unused schedules in input.\n   ************* There are 42 unused week schedules in input.\n   ************* There are 26 unused day schedules in input.\n   ************* Use Output:Diagnostics,DisplayUnusedSchedules; to see them.\n   *************\n   ************* ===== Recurring Surface Error Summary =====\n   ************* The following surface error messages occurred.\n   *************\n   ************* Base Surface does not surround subsurface errors occuring...\n   ************* Check that the GlobalGeometryRules object is expressing the proper starting corner and direction [CounterClockwise/Clockwise]\n   *************\n   ** Warning ** Base surface does not surround subsurface (CHKSBS), Overlap Status=No-Overlap\n   **   ~~~   **   The base surround errors occurred 1 times.\n   **   ~~~   ** Surface \"SURFACE 44\" misses SubSurface \"UNIT 1 - SURFACE 13 - DOOR\"\n   *************\n   **   ~~~   **   The base surround errors occurred 1 times (total).\n   *************\n   *************\n   ************* ===== Recurring Error Summary =====\n   ************* The following recurring error messages occurred.\n   *************\n   *************  ** Warning ** CalcDoe2DXCoil: Coil:Cooling:DX:SingleSpeed=\"RES AC COOLING COIL\" - Air volume flow rate per watt of rated total cooling capacity is out of range error continues...\n   *************  **   ~~~   **   This error occurred 670022 total times;\n   *************  **   ~~~   **   during Warmup 0 times;\n   *************  **   ~~~   **   during Sizing 0 times.\n   *************  **   ~~~   **   Max=7.025388E-005  Min=6.714763E-005\n   *************\n   *************  ** Warning ** SimHVAC: Exceeding Maximum iterations for all HVAC loops, during RUN PERIOD 1 continues\n   *************  **   ~~~   **   This error occurred 20 total times;\n   *************  **   ~~~   **   during Warmup 0 times;\n   *************  **   ~~~   **   during Sizing 0 times.\n   *************\n   *************\n   ************* ===== Final Error Summary =====\n   ************* The following error categories occurred.  Consider correcting or noting.\n   ************* Nominally Unused Constructions\n   ************* ..The nominally unused constructions warning is provided to alert you to potential conditions that can cause\n   ************* ..extra time during simulation. Each construction is calculated by the algorithm indicated in the HeatBalanceAlgorithm\n   ************* ..object. You may remove the constructions indicated (when you use the DisplayExtraWarnings option).\n   *************\n   ************* EnergyPlus Warmup Error Summary. During Warmup: 0 Warning; 0 Severe Errors.\n   ************* EnergyPlus Sizing Error Summary. During Sizing: 13 Warning; 1 Severe Errors.\n   ************* EnergyPlus Completed Successfully-- 670081 Warning; 2 Severe Errors; Elapsed Time=00hr 00min 32.78sec\n",
   "hash" : "09A09B35",
   "measure_paths" : [ "measures", "resources/measures" ],
   "started_at" : "20190716T221127Z",
   "steps" : [
      {
         "arguments" : {
            "dst_end_date" : "October 26",
            "dst_start_date" : "April 7",
            "weather_directory" : "../../../weather",
            "weather_file_name" : "USA_PA_Philadelphia.Intl.AP.724080_TMY3.epw"
         },
         "measure_dir_name" : "ResidentialLocation",
         "result" : {
            "completed_at" : "20190716T221128Z",
            "measure_class_name" : "SetResidentialEPWFile",
            "measure_display_name" : "Set Residential Location",
            "measure_name" : "set_residential_epw_file",
            "measure_taxonomy" : "Whole Building.Space Types",
            "measure_type" : "ModelMeasure",
            "measure_uid" : "16ac2c0c-6177-4bf2-91a5-1b6e8de4e85b",
            "measure_version_id" : "f89321a2-46dc-44ba-a139-698350046035",
            "measure_version_modified" : "20190701T173021Z",
            "measure_xml_checksum" : "D8922A73",
            "started_at" : "20190716T221127Z",
            "stderr" : "",
            "stdout" : "",
            "step_errors" : [],
            "step_files" : [],
            "step_final_condition" : "The weather file path is 'C:/OpenStudio-BuildStock/weather/USA_PA_Philadelphia.Intl.AP.724080_TMY3.epw'.",
            "step_info" : [
               "Setting weather file.",
               "Setting site data.",
               "Setting Building America climate zone to Mixed-Humid.",
               "Setting mains water temperature profile.",
               "Set daylight saving time from 2009-Apr-07 to 2009-Oct-26."
            ],
            "step_result" : "Success",
            "step_values" : [
               {
                  "name" : "weather_directory",
                  "value" : "../../../weather"
               },
               {
                  "name" : "weather_file_name",
                  "value" : "USA_PA_Philadelphia.Intl.AP.724080_TMY3.epw"
               },
               {
                  "name" : "dst_start_date",
                  "value" : "April 7"
               },
               {
                  "name" : "dst_end_date",
                  "value" : "October 26"
               }
            ],
            "step_warnings" : []
         }
      },
      {
         "arguments" : {
            "aspect_ratio" : "1.8",
            "attic_type" : "unfinished attic",
            "eaves_depth" : "2",
            "foundation_height" : "8",
            "foundation_type" : "unfinished basement",
            "garage_depth" : "24",
            "garage_position" : "Right",
            "garage_protrusion" : "0.5",
            "garage_width" : "24",
            "neighbor_back_offset" : "0",
            "neighbor_front_offset" : "0",
            "neighbor_left_offset" : "15",
            "neighbor_right_offset" : "15",
            "num_bathrooms" : "3",
            "num_bedrooms" : "4",
            "num_floors" : "2",
            "num_occupants" : "auto",
            "occupants_monthly_sch" : "1.0, 1.0, 1.0, 1.0, 1.0, 1.0, 1.0, 1.0, 1.0, 1.0, 1.0, 1.0",
            "occupants_weekday_sch" : "1.00, 1.00, 1.00, 1.00, 1.00, 1.00, 1.00, 0.88, 0.41, 0.24, 0.24, 0.24, 0.24, 0.24, 0.24, 0.24, 0.29, 0.55, 0.90, 0.90, 0.90, 1.00, 1.00, 1.00",
            "occupants_weekend_sch" : "1.00, 1.00, 1.00, 1.00, 1.00, 1.00, 1.00, 0.88, 0.41, 0.24, 0.24, 0.24, 0.24, 0.24, 0.24, 0.24, 0.29, 0.55, 0.90, 0.90, 0.90, 1.00, 1.00, 1.00",
            "orientation" : "270",
            "roof_pitch" : "6:12",
            "roof_structure" : "truss, cantilever",
            "roof_type" : "gable",
            "total_ffa" : "4500",
            "wall_height" : "8"
         },
         "measure_dir_name" : "ResidentialGeometryCreateSingleFamilyDetached",
         "result" : {
            "completed_at" : "20190716T221128Z",
            "measure_class_name" : "CreateResidentialSingleFamilyDetachedGeometry",
            "measure_display_name" : "Create Residential Single-Family Detached Geometry",
            "measure_name" : "create_residential_single_family_detached_geometry",
            "measure_taxonomy" : "Envelope.Form",
            "measure_type" : "ModelMeasure",
            "measure_uid" : "a1248ef4-c1ef-46ed-a9ea-4d8fbf719b6f",
            "measure_version_id" : "a207a735-3f4f-4633-acf8-6e757ec9f29d",
            "measure_version_modified" : "20190701T173018Z",
            "measure_xml_checksum" : "2AF3A68E",
            "started_at" : "20190716T221128Z",
            "stderr" : "",
            "stdout" : "[openstudio.model.YearDescription] <1> 'UseWeatherFile' is not yet a supported option for YearDescription\n",
            "step_errors" : [],
            "step_files" : [],
            "step_final_condition" : "The building finished with 6 spaces.",
            "step_info" : [
               "Set garage space.",
               "Set living space.",
               "Set living space|story 2.",
               "Set unfinished attic space.",
               "Set unfinished basement space.",
               "Set garage attic space.",
               "The building has been assigned 4 bedroom(s) and 3.0 bathroom(s) across 1 unit(s).",
               "unit 1 has been assigned 1.41 occupant(s) for space 'living space'.",
               "unit 1 has been assigned 1.82 occupant(s) for space 'living space|story 2'.",
               "The building has been assigned 3.23 occupant(s) across 1 unit(s).",
               "Added 10 res eaves.",
               "Added 2 res neighbors shading surfaces.",
               "The building's initial orientation was 0.0 azimuth.",
               "The building's final orientation was 270.0 azimuth."
            ],
            "step_initial_condition" : "The building started with 0 spaces.",
            "step_result" : "Success",
            "step_values" : [
               {
                  "name" : "total_ffa",
                  "value" : 4500
               },
               {
                  "name" : "wall_height",
                  "value" : 8
               },
               {
                  "name" : "num_floors",
                  "value" : 2
               },
               {
                  "name" : "aspect_ratio",
                  "value" : 1.8
               },
               {
                  "name" : "garage_width",
                  "value" : 24
               },
               {
                  "name" : "garage_depth",
                  "value" : 24
               },
               {
                  "name" : "garage_protrusion",
                  "value" : 0.5
               },
               {
                  "name" : "garage_position",
                  "value" : "Right"
               },
               {
                  "name" : "foundation_type",
                  "value" : "unfinished basement"
               },
               {
                  "name" : "foundation_height",
                  "value" : 8
               },
               {
                  "name" : "attic_type",
                  "value" : "unfinished attic"
               },
               {
                  "name" : "roof_type",
                  "value" : "gable"
               },
               {
                  "name" : "roof_pitch",
                  "value" : "6:12"
               },
               {
                  "name" : "roof_structure",
                  "value" : "truss, cantilever"
               },
               {
                  "name" : "eaves_depth",
                  "value" : 2
               },
               {
                  "name" : "num_bedrooms",
                  "value" : "4"
               },
               {
                  "name" : "num_bathrooms",
                  "value" : "3"
               },
               {
                  "name" : "num_occupants",
                  "value" : "auto"
               },
               {
                  "name" : "occupants_weekday_sch",
                  "value" : "1.00, 1.00, 1.00, 1.00, 1.00, 1.00, 1.00, 0.88, 0.41, 0.24, 0.24, 0.24, 0.24, 0.24, 0.24, 0.24, 0.29, 0.55, 0.90, 0.90, 0.90, 1.00, 1.00, 1.00"
               },
               {
                  "name" : "occupants_weekend_sch",
                  "value" : "1.00, 1.00, 1.00, 1.00, 1.00, 1.00, 1.00, 0.88, 0.41, 0.24, 0.24, 0.24, 0.24, 0.24, 0.24, 0.24, 0.29, 0.55, 0.90, 0.90, 0.90, 1.00, 1.00, 1.00"
               },
               {
                  "name" : "occupants_monthly_sch",
                  "value" : "1.0, 1.0, 1.0, 1.0, 1.0, 1.0, 1.0, 1.0, 1.0, 1.0, 1.0, 1.0"
               },
               {
                  "name" : "neighbor_left_offset",
                  "value" : 15
               },
               {
                  "name" : "neighbor_right_offset",
                  "value" : 15
               },
               {
                  "name" : "neighbor_back_offset",
                  "value" : 0
               },
               {
                  "name" : "neighbor_front_offset",
                  "value" : 0
               },
               {
                  "name" : "orientation",
                  "value" : 270
               }
            ],
            "step_warnings" : []
         }
      },
      {
         "arguments" : {
            "door_area" : "20"
         },
         "measure_dir_name" : "ResidentialGeometryDoorArea",
         "result" : {
            "completed_at" : "20190716T221128Z",
            "measure_class_name" : "CreateResidentialDoorArea",
            "measure_display_name" : "Set Residential Door Area",
            "measure_name" : "create_residential_door_area",
            "measure_taxonomy" : "Envelope.Fenestration",
            "measure_type" : "ModelMeasure",
            "measure_uid" : "901a04ee-99d4-42b3-91e1-b5b97970f441",
            "measure_version_id" : "7128d456-5773-4c86-930c-a409ed3b9ea9",
            "measure_version_modified" : "20190701T173018Z",
            "measure_xml_checksum" : "9C8A26EB",
            "started_at" : "20190716T221128Z",
            "stderr" : "",
            "stdout" : "",
            "step_errors" : [],
            "step_files" : [],
            "step_final_condition" : "The building has been assigned 20.0 ft^2 total door area.",
            "step_info" : [ "For unit 1 added 20.0 ft^2 door." ],
            "step_result" : "Success",
            "step_values" : [
               {
                  "name" : "door_area",
                  "value" : 20
               }
            ],
            "step_warnings" : []
         }
      },
      {
         "arguments" : {
            "back_skylight_area" : "0",
            "back_window_area" : "0",
            "back_wwr" : "0.15",
            "front_skylight_area" : "0",
            "front_window_area" : "0",
            "front_wwr" : "0.15",
            "left_skylight_area" : "0",
            "left_window_area" : "0",
            "left_wwr" : "0.15",
            "overhang_back_facade" : "false",
            "overhang_depth" : "0",
            "overhang_front_facade" : "false",
            "overhang_left_facade" : "false",
            "overhang_offset" : "0",
            "overhang_right_facade" : "false",
            "right_skylight_area" : "0",
            "right_window_area" : "0",
            "right_wwr" : "0.15",
            "window_aspect_ratio" : "1.333"
         },
         "measure_dir_name" : "ResidentialGeometryWindowSkylightArea",
         "result" : {
            "completed_at" : "20190716T221128Z",
            "measure_class_name" : "SetResidentialWindowSkylightArea",
            "measure_display_name" : "Set Residential Window/Skylight Area",
            "measure_name" : "set_residential_window_skylight_area",
            "measure_taxonomy" : "Envelope.Fenestration",
            "measure_type" : "ModelMeasure",
            "measure_uid" : "d05f5b32-1ad6-4c3d-964a-0dbd49a7fde8",
            "measure_version_id" : "d45b34bc-df3c-4ebc-81e8-a15133972cc7",
            "measure_version_modified" : "20190701T173018Z",
            "measure_xml_checksum" : "9014E219",
            "started_at" : "20190716T221128Z",
            "stderr" : "",
            "stdout" : "",
            "step_errors" : [],
            "step_files" : [],
            "step_final_condition" : "The building has been assigned 457.1 ft^2 total window area, and 0.0 ft^2 total skylight area.",
            "step_info" : [
               "Added 4 window(s), totaling 43.6 ft^2, to Surface 13.",
               "Added 4 window(s), totaling 47.8 ft^2, to Surface 21.",
               "Added 3 window(s), totaling 28.9 ft^2, to Surface 19.",
               "Added 7 window(s), totaling 76.4 ft^2, to Surface 9.",
               "Added 7 window(s), totaling 76.4 ft^2, to Surface 17.",
               "Added 4 window(s), totaling 42.4 ft^2, to Surface 8.",
               "Added 4 window(s), totaling 42.4 ft^2, to Surface 16.",
               "Added 2 window(s), totaling 14.4 ft^2, to Surface 20.",
               "Added 3 window(s), totaling 28.0 ft^2, to Surface 10.",
               "Added 5 window(s), totaling 56.8 ft^2, to Surface 18.",
               "No res overhangs to be added."
            ],
            "step_result" : "Success",
            "step_values" : [
               {
                  "name" : "front_wwr",
                  "value" : 0.14999999999999999
               },
               {
                  "name" : "back_wwr",
                  "value" : 0.14999999999999999
               },
               {
                  "name" : "left_wwr",
                  "value" : 0.14999999999999999
               },
               {
                  "name" : "right_wwr",
                  "value" : 0.14999999999999999
               },
               {
                  "name" : "front_window_area",
                  "value" : 0
               },
               {
                  "name" : "back_window_area",
                  "value" : 0
               },
               {
                  "name" : "left_window_area",
                  "value" : 0
               },
               {
                  "name" : "right_window_area",
                  "value" : 0
               },
               {
                  "name" : "window_aspect_ratio",
                  "value" : 1.333
               },
               {
                  "name" : "overhang_depth",
                  "value" : 0
               },
               {
                  "name" : "overhang_offset",
                  "value" : 0
               },
               {
                  "name" : "overhang_front_facade",
                  "value" : false
               },
               {
                  "name" : "overhang_back_facade",
                  "value" : false
               },
               {
                  "name" : "overhang_left_facade",
                  "value" : false
               },
               {
                  "name" : "overhang_right_facade",
                  "value" : false
               },
               {
                  "name" : "front_skylight_area",
                  "value" : 0
               },
               {
                  "name" : "back_skylight_area",
                  "value" : 0
               },
               {
                  "name" : "left_skylight_area",
                  "value" : 0
               },
               {
                  "name" : "right_skylight_area",
                  "value" : 0
               }
            ],
            "step_warnings" : []
         }
      },
      {
         "arguments" : {
            "ceiling_drywall_thick_in" : "0.5",
            "ceiling_framing_factor" : "0.07",
            "ceiling_ins_thick_in" : "7.41",
            "ceiling_install_grade" : "1",
            "ceiling_joist_height_in" : "3.5",
            "ceiling_r" : "19",
            "has_radiant_barrier" : "false",
            "roof_cavity_ins_thick_in" : "0",
            "roof_cavity_r" : "0",
            "roof_framing_factor" : "0.07",
            "roof_framing_thick_in" : "7.25",
            "roof_install_grade" : "1",
            "roof_osb_thick_in" : "0.75",
            "roof_rigid_r" : "0",
            "roofing_material" : "Asphalt Shingles, Medium"
         },
         "measure_dir_name" : "ResidentialConstructionsUnfinishedAttic",
         "result" : {
            "completed_at" : "20190716T221128Z",
            "measure_class_name" : "ProcessConstructionsUnfinishedAttic",
            "measure_display_name" : "Set Residential Unfinished Attic Constructions",
            "measure_name" : "process_constructions_unfinished_attic",
            "measure_taxonomy" : "Envelope.Opaque",
            "measure_type" : "ModelMeasure",
            "measure_uid" : "235ba3ce-dd83-4287-aa0e-435dc1cbf1a7",
            "measure_version_id" : "8412a1a0-7251-42a2-832d-739109948bdf",
            "measure_version_modified" : "20190701T173017Z",
            "measure_xml_checksum" : "1E963D9C",
            "started_at" : "20190716T221128Z",
            "stderr" : "",
            "stdout" : "",
            "step_errors" : [],
            "step_files" : [],
            "step_info" : [
               "Material 'FloorUAAdditionalCeilingIns' was created.",
               "Material 'FloorUATrussandIns' was created.",
               "Material 'Drywall 0.5 in.' was created.",
               "Construction 'FloorFinInsUnfinAttic' was created with 3 materials (FloorUAAdditionalCeilingIns | FloorUATrussandIns | Drywall 0.5 in.).",
               "Surface 'Surface 38 Reversed' has been assigned construction 'FloorFinInsUnfinAttic'.",
               "Construction 'FloorFinInsUnfinAttic Reversed' was created with 3 materials (Drywall 0.5 in. | FloorUATrussandIns | FloorUAAdditionalCeilingIns).",
               "Surface 'Surface 38' has been assigned construction 'FloorFinInsUnfinAttic Reversed'.",
               "Surface 'Surface 23' has been assigned construction 'FloorFinInsUnfinAttic'.",
               "Surface 'Surface 22' has been assigned construction 'FloorFinInsUnfinAttic Reversed'.",
               "Material 'Asphalt Shingles, Medium' was created.",
               "Material 'RoofSheathing' was created.",
               "Material 'RoofUARoofIns' was created.",
               "Construction 'RoofUnfinInsExt' was created with 3 materials (Asphalt Shingles, Medium | RoofSheathing | RoofUARoofIns).",
               "Surface 'Surface 40' has been assigned construction 'RoofUnfinInsExt'.",
               "Surface 'Surface 39' has been assigned construction 'RoofUnfinInsExt'.",
               "Surface 'Surface 25' has been assigned construction 'RoofUnfinInsExt'.",
               "Surface 'Surface 43' has been assigned construction 'RoofUnfinInsExt'."
            ],
            "step_result" : "Success",
            "step_values" : [
               {
                  "name" : "ceiling_r",
                  "value" : 19
               },
               {
                  "name" : "ceiling_install_grade",
                  "value" : "1"
               },
               {
                  "name" : "ceiling_ins_thick_in",
                  "value" : 7.4100000000000001
               },
               {
                  "name" : "ceiling_framing_factor",
                  "value" : 0.070000000000000007
               },
               {
                  "name" : "ceiling_joist_height_in",
                  "value" : 3.5
               },
               {
                  "name" : "ceiling_drywall_thick_in",
                  "value" : 0.5
               },
               {
                  "name" : "roof_cavity_r",
                  "value" : 0
               },
               {
                  "name" : "roof_install_grade",
                  "value" : "1"
               },
               {
                  "name" : "roof_cavity_ins_thick_in",
                  "value" : 0
               },
               {
                  "name" : "roof_framing_factor",
                  "value" : 0.070000000000000007
               },
               {
                  "name" : "roof_framing_thick_in",
                  "value" : 7.25
               },
               {
                  "name" : "roof_osb_thick_in",
                  "value" : 0.75
               },
               {
                  "name" : "roof_rigid_r",
                  "value" : 0
               },
               {
                  "name" : "roofing_material",
                  "value" : "Asphalt Shingles, Medium"
               },
               {
                  "name" : "has_radiant_barrier",
                  "value" : false
               }
            ],
            "step_warnings" : []
         }
      },
      {
         "arguments" : {
            "cavity_depth" : "9.25",
            "cavity_r" : "30",
            "drywall_thick_in" : "0.5",
            "filled_cavity" : "true",
            "framing_factor" : "0.07",
            "install_grade" : "1",
            "osb_thick_in" : "0.75",
            "rigid_r" : "0.0",
            "roofing_material" : "Asphalt Shingles, Medium"
         },
         "measure_dir_name" : "ResidentialConstructionsFinishedRoof",
         "result" : {
            "completed_at" : "20190716T221128Z",
            "measure_class_name" : "ProcessConstructionsFinishedRoof",
            "measure_display_name" : "Set Residential Finished Roof Construction",
            "measure_name" : "process_constructions_finished_roof",
            "measure_taxonomy" : "Envelope.Opaque",
            "measure_type" : "ModelMeasure",
            "measure_uid" : "6349eb9b-6e7e-4ba9-b518-76d2f9f73c79",
            "measure_version_id" : "419ed68e-98f0-4200-99c5-e6277268288d",
            "measure_version_modified" : "20190701T173016Z",
            "measure_xml_checksum" : "1E963D9C",
            "started_at" : "20190716T221128Z",
            "stderr" : "",
            "stdout" : "",
            "step_errors" : [],
            "step_files" : [],
            "step_info" : [],
            "step_result" : "Success",
            "step_values" : [
               {
                  "name" : "cavity_r",
                  "value" : 30
               },
               {
                  "name" : "install_grade",
                  "value" : "1"
               },
               {
                  "name" : "cavity_depth",
                  "value" : 9.25
               },
               {
                  "name" : "filled_cavity",
                  "value" : true
               },
               {
                  "name" : "framing_factor",
                  "value" : 0.070000000000000007
               },
               {
                  "name" : "drywall_thick_in",
                  "value" : 0.5
               },
               {
                  "name" : "osb_thick_in",
                  "value" : 0.75
               },
               {
                  "name" : "rigid_r",
                  "value" : 0
               },
               {
                  "name" : "roofing_material",
                  "value" : "Asphalt Shingles, Medium"
               }
            ],
            "step_warnings" : []
         }
      },
      {
         "arguments" : {
            "cavity_depth_in" : "5.5",
            "cavity_filled" : "true",
            "cavity_r" : "17.3",
            "drywall_thick_in" : "0.5",
            "exterior_finish" : "Vinyl, Light",
            "framing_factor" : "0.22",
            "install_grade" : "1",
            "osb_thick_in" : "0.5",
            "rigid_r" : "0.0"
         },
         "measure_dir_name" : "ResidentialConstructionsWallsWoodStud",
         "result" : {
            "completed_at" : "20190716T221128Z",
            "measure_class_name" : "ProcessConstructionsWallsWoodStud",
            "measure_display_name" : "Set Residential Walls - Wood Stud Construction",
            "measure_name" : "process_constructions_walls_wood_stud",
            "measure_taxonomy" : "Envelope.Opaque",
            "measure_type" : "ModelMeasure",
            "measure_uid" : "76193c5c-d1a6-4a57-864a-c8a32e67adcb",
            "measure_version_id" : "8c4c2f94-d284-4745-b94d-471663fbbb82",
            "measure_version_modified" : "20190701T173017Z",
            "measure_xml_checksum" : "1E963D9C",
            "started_at" : "20190716T221128Z",
            "stderr" : "",
            "stdout" : "",
            "step_errors" : [],
            "step_files" : [],
            "step_info" : [
               "Material 'Vinyl, Light' was created.",
               "Material 'WallSheathing' was created.",
               "Material 'WallStudAndCavity' was created.",
               "Construction 'WallExtInsFin' was created with 4 materials (Vinyl, Light | WallSheathing | WallStudAndCavity | Drywall 0.5 in.).",
               "Surface 'Surface 8' has been assigned construction 'WallExtInsFin'.",
               "Surface 'Surface 9' has been assigned construction 'WallExtInsFin'.",
               "Surface 'Surface 10' has been assigned construction 'WallExtInsFin'.",
               "Surface 'Surface 13' has been assigned construction 'WallExtInsFin'.",
               "Surface 'Surface 45' has been assigned construction 'WallExtInsFin'.",
               "Surface 'Surface 44' has been assigned construction 'WallExtInsFin'.",
               "Surface 'Surface 21' has been assigned construction 'WallExtInsFin'.",
               "Surface 'Surface 16' has been assigned construction 'WallExtInsFin'.",
               "Surface 'Surface 17' has been assigned construction 'WallExtInsFin'.",
               "Surface 'Surface 18' has been assigned construction 'WallExtInsFin'.",
               "Surface 'Surface 20' has been assigned construction 'WallExtInsFin'.",
               "Surface 'Surface 19' has been assigned construction 'WallExtInsFin'.",
               "Material 'WallStudAndCavity 1' was created.",
               "Construction 'WallIntFinInsUnfin' was created with 2 materials (WallSheathing | WallStudAndCavity 1).",
               "Surface 'Surface 11' has been assigned construction 'WallIntFinInsUnfin'.",
               "Construction 'WallIntFinInsUnfin Reversed' was created with 2 materials (WallStudAndCavity 1 | WallSheathing).",
               "Surface 'Surface 3' has been assigned construction 'WallIntFinInsUnfin Reversed'.",
               "Surface 'Surface 12' has been assigned construction 'WallIntFinInsUnfin'.",
               "Surface 'Surface 2' has been assigned construction 'WallIntFinInsUnfin Reversed'.",
               "Material 'WallStudAndCavity 2' was created.",
               "Construction 'WallExtUninsUnfin' was created with 3 materials (Vinyl, Light | WallSheathing | WallStudAndCavity 2).",
               "Surface 'Surface 36' has been assigned construction 'WallExtUninsUnfin'.",
               "Surface 'Surface 4' has been assigned construction 'WallExtUninsUnfin'.",
               "Surface 'Surface 5' has been assigned construction 'WallExtUninsUnfin'.",
               "Surface 'Surface 42' has been assigned construction 'WallExtUninsUnfin'.",
               "Surface 'Surface 27' has been assigned construction 'WallExtUninsUnfin'.",
               "Surface 'Surface 26' has been assigned construction 'WallExtUninsUnfin'.",
               "Material 'WallStudAndCavity 3' was created.",
               "Construction 'WallIntUnfinUninsUnfin' was created with 2 materials (Vinyl, Light | WallStudAndCavity 3).",
               "Surface 'Surface 32' has been assigned construction 'WallIntUnfinUninsUnfin'.",
               "Surface 'Surface 33' has been assigned construction 'WallIntUnfinUninsUnfin'.",
               "Added internal mass object 'living space Partition' to space 'living space'",
               "Added internal mass object 'living space|story 2 Partition' to space 'living space|story 2'",
               "Material 'WallStudAndCavity 4' was created.",
               "Construction 'WallIntFinUninsFin' was created with 2 materials (WallStudAndCavity 4 | Drywall 0.5 in.).",
               "InternalMassDefinition 'living space Partition' has been assigned construction 'WallIntFinUninsFin'.",
               "InternalMassDefinition 'living space|story 2 Partition' has been assigned construction 'WallIntFinUninsFin'.",
               "Material 'res furniture material unfinished basement space' was created.",
               "Construction 'res furniture construction unfinished basement space' was created with 1 material (res furniture material unfinished basement space).",
               "InternalMassDefinition 'res furniture mass unfinished basement space' has been assigned construction 'res furniture construction unfinished basement space'.",
               "Assigned internal mass object 'res furniture mass unfinished basement space' to space 'unfinished basement space'.",
               "Construction 'res furniture construction garage space' was created with 1 material (res furniture material unfinished basement space).",
               "InternalMassDefinition 'res furniture mass garage space' has been assigned construction 'res furniture construction garage space'.",
               "Assigned internal mass object 'res furniture mass garage space' to space 'garage space'.",
               "Construction 'res furniture construction living space' was created with 1 material (res furniture material unfinished basement space).",
               "InternalMassDefinition 'res furniture mass living space' has been assigned construction 'res furniture construction living space'.",
               "Assigned internal mass object 'res furniture mass living space' to space 'living space'.",
               "Construction 'res furniture construction living space|story 2' was created with 1 material (res furniture material unfinished basement space).",
               "InternalMassDefinition 'res furniture mass living space|story 2' has been assigned construction 'res furniture construction living space|story 2'.",
               "Assigned internal mass object 'res furniture mass living space|story 2' to space 'living space|story 2'."
            ],
            "step_result" : "Success",
            "step_values" : [
               {
                  "name" : "cavity_r",
                  "value" : 17.300000000000001
               },
               {
                  "name" : "install_grade",
                  "value" : "1"
               },
               {
                  "name" : "cavity_depth_in",
                  "value" : 5.5
               },
               {
                  "name" : "cavity_filled",
                  "value" : true
               },
               {
                  "name" : "framing_factor",
                  "value" : 0.22
               },
               {
                  "name" : "drywall_thick_in",
                  "value" : 0.5
               },
               {
                  "name" : "osb_thick_in",
                  "value" : 0.5
               },
               {
                  "name" : "rigid_r",
                  "value" : 0
               },
               {
                  "name" : "exterior_finish",
                  "value" : "Vinyl, Light"
               }
            ],
            "step_warnings" : []
         }
      },
      {
         "arguments" : {
            "ceiling_cavity_r" : "0",
            "ceiling_framing_factor" : "0.13",
            "ceiling_install_grade" : "1",
            "ceiling_joist_height_in" : "9.25",
            "slab_whole_r" : "0",
            "wall_cavity_depth_in" : "0",
            "wall_cavity_r" : "0",
            "wall_drywall_thick_in" : "0.5",
            "wall_filled_cavity" : "true",
            "wall_framing_factor" : "0",
            "wall_ins_height" : "0",
            "wall_install_grade" : "1",
            "wall_rigid_r" : "0"
         },
         "measure_dir_name" : "ResidentialConstructionsUnfinishedBasement",
         "result" : {
            "completed_at" : "20190716T221128Z",
            "measure_class_name" : "ProcessConstructionsUnfinishedBasement",
            "measure_display_name" : "Set Residential Unfinished Basement Constructions",
            "measure_name" : "process_constructions_unfinished_basement",
            "measure_taxonomy" : "Envelope.Opaque",
            "measure_type" : "ModelMeasure",
            "measure_uid" : "ebc21070-2d4b-4a2a-bd15-f18bf3e77b49",
            "measure_version_id" : "4cf07e54-e416-4161-bb58-757e7030b2b1",
            "measure_version_modified" : "20190701T173017Z",
            "measure_xml_checksum" : "1E963D9C",
            "started_at" : "20190716T221128Z",
            "stderr" : "",
            "stdout" : "",
            "step_errors" : [],
            "step_files" : [],
            "step_info" : [
               "Material 'Concrete 8.0 in.' was created.",
               "Construction 'WallFndGrndUnfinB' was created with 2 materials (Concrete 8.0 in. | Drywall 0.5 in.).",
               "Surface 'Surface 29' has been assigned construction 'WallFndGrndUnfinB'.",
               "Surface 'Surface 34' has been assigned construction 'WallFndGrndUnfinB'.",
               "Surface 'Surface 30' has been assigned construction 'WallFndGrndUnfinB'.",
               "Surface 'Surface 31' has been assigned construction 'WallFndGrndUnfinB'.",
               "Material 'Concrete 4.0 in.' was created.",
               "Construction 'FloorFndGrndUnfinB' was created with 1 material (Concrete 4.0 in.).",
               "Surface 'Surface 28' has been assigned construction 'FloorFndGrndUnfinB'.",
               "Material 'FloorIns' was created.",
               "Material 'Wood Floor' was created.",
               "Material 'Floor Covering' was created.",
               "Construction 'FloorUnfinBInsFin' was created with 4 materials (FloorIns | RoofSheathing | Wood Floor | Floor Covering).",
               "Surface 'Surface 35' has been assigned construction 'FloorUnfinBInsFin'.",
               "Construction 'FloorUnfinBInsFin Reversed' was created with 4 materials (Floor Covering | Wood Floor | RoofSheathing | FloorIns).",
               "Surface 'Surface 7' has been assigned construction 'FloorUnfinBInsFin Reversed'.",
               "Construction 'FloorFndGrndUnfinSlab' was created with 1 material (Concrete 4.0 in.).",
               "Surface 'Surface 1' has been assigned construction 'FloorFndGrndUnfinSlab'."
            ],
            "step_result" : "Success",
            "step_values" : [
               {
                  "name" : "wall_ins_height",
                  "value" : 0
               },
               {
                  "name" : "wall_cavity_r",
                  "value" : 0
               },
               {
                  "name" : "wall_install_grade",
                  "value" : "1"
               },
               {
                  "name" : "wall_cavity_depth_in",
                  "value" : 0
               },
               {
                  "name" : "wall_filled_cavity",
                  "value" : true
               },
               {
                  "name" : "wall_framing_factor",
                  "value" : 0
               },
               {
                  "name" : "wall_rigid_r",
                  "value" : 0
               },
               {
                  "name" : "wall_drywall_thick_in",
                  "value" : 0.5
               },
               {
                  "name" : "ceiling_cavity_r",
                  "value" : 0
               },
               {
                  "name" : "ceiling_install_grade",
                  "value" : "1"
               },
               {
                  "name" : "ceiling_framing_factor",
                  "value" : 0.13
               },
               {
                  "name" : "ceiling_joist_height_in",
                  "value" : 9.25
               },
               {
                  "name" : "slab_whole_r",
                  "value" : 0
               }
            ],
            "step_warnings" : []
         }
      },
      {
         "arguments" : {
            "cavity_r" : "19",
            "framing_factor" : "0.13",
            "install_grade" : "1",
            "joist_height_in" : "5.5"
         },
         "measure_dir_name" : "ResidentialConstructionsFloors",
         "result" : {
            "completed_at" : "20190716T221128Z",
            "measure_class_name" : "ProcessConstructionsFloors",
            "measure_display_name" : "Set Residential Floor Construction",
            "measure_name" : "process_constructions_floors",
            "measure_taxonomy" : "Envelope.Opaque",
            "measure_type" : "ModelMeasure",
            "measure_uid" : "65e577ab-327e-4afa-af30-0f6b4e6b1ebf",
            "measure_version_id" : "54db01d7-8cb4-4d3c-bcff-f911ef246735",
            "measure_version_modified" : "20190701T173017Z",
            "measure_xml_checksum" : "1E963D9C",
            "started_at" : "20190716T221128Z",
            "stderr" : "",
            "stdout" : "",
            "step_errors" : [],
            "step_files" : [],
            "step_info" : [
               "Material 'FloorIns 1' was created.",
               "Construction 'FloorFinInsUnfin' was created with 4 materials (FloorIns 1 | RoofSheathing | Wood Floor | Floor Covering).",
               "Surface 'Surface 15' has been assigned construction 'FloorFinInsUnfin'.",
               "Construction 'FloorFinInsUnfin Reversed' was created with 4 materials (Floor Covering | Wood Floor | RoofSheathing | FloorIns 1).",
               "Surface 'Surface 6' has been assigned construction 'FloorFinInsUnfin Reversed'.",
               "Material 'FloorFinStudAndAirFloor' was created.",
               "Construction 'FloorFinUninsFin' was created with 5 materials (Drywall 0.5 in. | FloorFinStudAndAirFloor | RoofSheathing | Wood Floor | Floor Covering).",
               "Surface 'Surface 37' has been assigned construction 'FloorFinUninsFin'.",
               "Construction 'FloorFinUninsFin Reversed' was created with 5 materials (Floor Covering | Wood Floor | RoofSheathing | FloorFinStudAndAirFloor | Drywall 0.5 in.).",
               "Surface 'Surface 14' has been assigned construction 'FloorFinUninsFin Reversed'."
            ],
            "step_result" : "Success",
            "step_values" : [
               {
                  "name" : "cavity_r",
                  "value" : 19
               },
               {
                  "name" : "install_grade",
                  "value" : "1"
               },
               {
                  "name" : "framing_factor",
                  "value" : 0.13
               },
               {
                  "name" : "joist_height_in",
                  "value" : 5.5
               }
            ],
            "step_warnings" : []
         }
      },
      {
         "arguments" : {
            "skylight_cool_shade_mult" : "0.7",
            "skylight_heat_shade_mult" : "0.7",
            "skylight_shgc" : "0.3",
            "skylight_ufactor" : "0.37",
            "window_cool_shade_mult" : "0.7",
            "window_heat_shade_mult" : "0.7",
            "window_shgc" : "0.3",
            "window_ufactor" : "0.37"
         },
         "measure_dir_name" : "ResidentialConstructionsWindowsSkylights",
         "result" : {
            "completed_at" : "20190716T221129Z",
            "measure_class_name" : "ProcessConstructionsWindowsSkylights",
            "measure_display_name" : "Set Residential Window/Skylight Construction",
            "measure_name" : "process_constructions_windows_skylights",
            "measure_taxonomy" : "Envelope.Fenestration",
            "measure_type" : "ModelMeasure",
            "measure_uid" : "648dc42f-f079-4d97-913e-6dc3e19560b1",
            "measure_version_id" : "486a60e7-1b14-4891-bf2f-2361aa7bec0c",
            "measure_version_modified" : "20190701T173018Z",
            "measure_xml_checksum" : "6FAFA9DE",
            "started_at" : "20190716T221128Z",
            "stderr" : "",
            "stdout" : "[openstudio.model.YearDescription] <1> 'UseWeatherFile' is not yet a supported option for YearDescription\n",
            "step_errors" : [],
            "step_files" : [],
            "step_final_condition" : "All windows and skylights have been assigned constructions.",
            "step_info" : [
               "Material 'WindowMaterial' was created.",
               "Construction 'WindowConstruction' was created with 1 material (WindowMaterial).",
               "SubSurface 'Surface 21 - Window 4' has been assigned construction 'WindowConstruction'.",
               "SubSurface 'Surface 21 - Window 1' has been assigned construction 'WindowConstruction'.",
               "SubSurface 'Surface 13 - Window 4' has been assigned construction 'WindowConstruction'.",
               "SubSurface 'Surface 18 - Window 3' has been assigned construction 'WindowConstruction'.",
               "SubSurface 'Surface 17 - Window 5' has been assigned construction 'WindowConstruction'.",
               "SubSurface 'Surface 9 - Window 1' has been assigned construction 'WindowConstruction'.",
               "SubSurface 'Surface 13 - Window 2' has been assigned construction 'WindowConstruction'.",
               "SubSurface 'Surface 9 - Window 4' has been assigned construction 'WindowConstruction'.",
               "SubSurface 'Surface 13 - Window 1' has been assigned construction 'WindowConstruction'.",
               "SubSurface 'Surface 21 - Window 3' has been assigned construction 'WindowConstruction'.",
               "SubSurface 'Surface 17 - Window 6' has been assigned construction 'WindowConstruction'.",
               "SubSurface 'Surface 17 - Window 1' has been assigned construction 'WindowConstruction'.",
               "SubSurface 'Surface 13 - Window 3' has been assigned construction 'WindowConstruction'.",
               "SubSurface 'Surface 21 - Window 2' has been assigned construction 'WindowConstruction'.",
               "SubSurface 'Surface 19 - Window 1' has been assigned construction 'WindowConstruction'.",
               "SubSurface 'Surface 9 - Window 3' has been assigned construction 'WindowConstruction'.",
               "SubSurface 'Surface 19 - Window 2' has been assigned construction 'WindowConstruction'.",
               "SubSurface 'Surface 19 - Window 3' has been assigned construction 'WindowConstruction'.",
               "SubSurface 'Surface 8 - Window 4' has been assigned construction 'WindowConstruction'.",
               "SubSurface 'Surface 9 - Window 2' has been assigned construction 'WindowConstruction'.",
               "SubSurface 'Surface 9 - Window 5' has been assigned construction 'WindowConstruction'.",
               "SubSurface 'Surface 9 - Window 6' has been assigned construction 'WindowConstruction'.",
               "SubSurface 'Surface 18 - Window 1' has been assigned construction 'WindowConstruction'.",
               "SubSurface 'Surface 9 - Window 7' has been assigned construction 'WindowConstruction'.",
               "SubSurface 'Surface 17 - Window 2' has been assigned construction 'WindowConstruction'.",
               "SubSurface 'Surface 17 - Window 3' has been assigned construction 'WindowConstruction'.",
               "SubSurface 'Surface 16 - Window 1' has been assigned construction 'WindowConstruction'.",
               "SubSurface 'Surface 17 - Window 4' has been assigned construction 'WindowConstruction'.",
               "SubSurface 'Surface 17 - Window 7' has been assigned construction 'WindowConstruction'.",
               "SubSurface 'Surface 8 - Window 1' has been assigned construction 'WindowConstruction'.",
               "SubSurface 'Surface 8 - Window 2' has been assigned construction 'WindowConstruction'.",
               "SubSurface 'Surface 8 - Window 3' has been assigned construction 'WindowConstruction'.",
               "SubSurface 'Surface 18 - Window 4' has been assigned construction 'WindowConstruction'.",
               "SubSurface 'Surface 16 - Window 2' has been assigned construction 'WindowConstruction'.",
               "SubSurface 'Surface 16 - Window 3' has been assigned construction 'WindowConstruction'.",
               "SubSurface 'Surface 16 - Window 4' has been assigned construction 'WindowConstruction'.",
               "SubSurface 'Surface 20 - Window 1' has been assigned construction 'WindowConstruction'.",
               "SubSurface 'Surface 20 - Window 2' has been assigned construction 'WindowConstruction'.",
               "SubSurface 'Surface 10 - Window 1' has been assigned construction 'WindowConstruction'.",
               "SubSurface 'Surface 10 - Window 2' has been assigned construction 'WindowConstruction'.",
               "SubSurface 'Surface 10 - Window 3' has been assigned construction 'WindowConstruction'.",
               "SubSurface 'Surface 18 - Window 2' has been assigned construction 'WindowConstruction'.",
               "SubSurface 'Surface 18 - Window 5' has been assigned construction 'WindowConstruction'.",
               "Construction and interior shades added to 43 window(s)."
            ],
            "step_result" : "Success",
            "step_values" : [
               {
                  "name" : "window_ufactor",
                  "value" : 0.37
               },
               {
                  "name" : "window_shgc",
                  "value" : 0.29999999999999999
               },
               {
                  "name" : "window_heat_shade_mult",
                  "value" : 0.69999999999999996
               },
               {
                  "name" : "window_cool_shade_mult",
                  "value" : 0.69999999999999996
               },
               {
                  "name" : "skylight_ufactor",
                  "value" : 0.37
               },
               {
                  "name" : "skylight_shgc",
                  "value" : 0.29999999999999999
               },
               {
                  "name" : "skylight_heat_shade_mult",
                  "value" : 0.69999999999999996
               },
               {
                  "name" : "skylight_cool_shade_mult",
                  "value" : 0.69999999999999996
               }
            ],
            "step_warnings" : []
         }
      },
      {
         "arguments" : {
            "ufactor" : "0.2"
         },
         "measure_dir_name" : "ResidentialConstructionsDoors",
         "result" : {
            "completed_at" : "20190716T221129Z",
            "measure_class_name" : "ProcessConstructionsDoors",
            "measure_display_name" : "Set Residential Door Construction",
            "measure_name" : "process_constructions_doors",
            "measure_taxonomy" : "Envelope.Fenestration",
            "measure_type" : "ModelMeasure",
            "measure_uid" : "b78f10fa-b38d-4de2-86e9-344a78e68847",
            "measure_version_id" : "647705a9-6666-4f9f-ba74-af84a86c18ba",
            "measure_version_modified" : "20190701T173016Z",
            "measure_xml_checksum" : "6FAFA9DE",
            "started_at" : "20190716T221129Z",
            "stderr" : "",
            "stdout" : "",
            "step_errors" : [],
            "step_files" : [],
            "step_info" : [
               "Material 'DoorMaterial' was created.",
               "Construction 'Door' was created with 1 material (DoorMaterial).",
               "SubSurface 'unit 1 - Surface 13 - Door' has been assigned construction 'Door'."
            ],
            "step_result" : "Success",
            "step_values" : [
               {
                  "name" : "ufactor",
                  "value" : 0.20000000000000001
               }
            ],
            "step_warnings" : []
         }
      },
      {
         "arguments" : {
            "capacity" : "4.5",
            "energy_factor" : "0.92",
            "fuel_type" : "electric",
            "location" : "auto",
            "offcyc_power" : "0",
            "oncyc_power" : "0",
            "recovery_efficiency" : "0.98",
            "setpoint_temp" : "125",
            "tank_volume" : "auto"
         },
         "measure_dir_name" : "ResidentialHotWaterHeaterTank",
         "result" : {
            "completed_at" : "20190716T221129Z",
            "measure_class_name" : "ResidentialHotWaterHeaterTank",
            "measure_display_name" : "Set Residential Tank Water Heater",
            "measure_name" : "residential_hot_water_heater_tank",
            "measure_taxonomy" : "Service Water Heating.Water Heating",
            "measure_type" : "ModelMeasure",
            "measure_uid" : "0f2214ac-12ca-4350-9942-8d1fb1277608",
            "measure_version_id" : "53059d79-5aa9-4639-8ca5-4a452b78b78b",
            "measure_version_modified" : "20190701T173018Z",
            "measure_xml_checksum" : "9882CBDB",
            "started_at" : "20190716T221129Z",
            "stderr" : "",
            "stdout" : "",
            "step_errors" : [],
            "step_files" : [],
            "step_final_condition" : "Water heater 'res wh' added to plant loop 'Domestic Hot Water Loop', with a capacity of 4.5 kBtu/hr and an actual tank volume of 59.4 gal.",
            "step_info" : [ "A new plant loop for DHW will be added to the model" ],
            "step_initial_condition" : "No water heater model currently exists",
            "step_result" : "Success",
            "step_values" : [
               {
                  "name" : "fuel_type",
                  "value" : "electric"
               },
               {
                  "name" : "tank_volume",
                  "value" : "auto"
               },
               {
                  "name" : "setpoint_temp",
                  "value" : 125
               },
               {
                  "name" : "location",
                  "value" : "auto"
               },
               {
                  "name" : "capacity",
                  "value" : "4.5"
               },
               {
                  "name" : "energy_factor",
                  "value" : "0.92"
               },
               {
                  "name" : "recovery_efficiency",
                  "value" : 0.97999999999999998
               },
               {
                  "name" : "offcyc_power",
                  "value" : 0
               },
               {
                  "name" : "oncyc_power",
                  "value" : 0
               }
            ],
            "step_warnings" : []
         }
      },
      {
         "arguments" : {
            "bath_mult" : "2.0",
            "plant_loop" : "auto",
            "schedule_day_shift" : "66",
            "shower_mult" : "2.0",
            "sink_mult" : "2.0"
         },
         "measure_dir_name" : "ResidentialHotWaterFixtures",
         "result" : {
            "completed_at" : "20190716T221129Z",
            "measure_class_name" : "ResidentialHotWaterFixtures",
            "measure_display_name" : "Set Residential Hot Water Fixtures",
            "measure_name" : "residential_hot_water_fixtures",
            "measure_taxonomy" : "Service Water Heating.Water Use",
            "measure_type" : "ModelMeasure",
            "measure_uid" : "6159fd36-6bfa-4907-9200-9cb852d50799",
            "measure_version_id" : "0bd23264-4169-4c8b-8787-60ced4bea1aa",
            "measure_version_modified" : "20190701T173018Z",
            "measure_xml_checksum" : "A6ACD89C",
            "started_at" : "20190716T221129Z",
            "stderr" : "",
            "stdout" : "[openstudio.model.YearDescription] <1> 'UseWeatherFile' is not yet a supported option for YearDescription\n[openstudio.model.YearDescription] <1> 'UseWeatherFile' is not yet a supported option for YearDescription\n[openstudio.model.YearDescription] <1> 'UseWeatherFile' is not yet a supported option for YearDescription\n",
            "step_errors" : [],
            "step_files" : [],
            "step_final_condition" : "Shower, sinks, and bath fixtures drawing 65.4, 58.3, and 16.4 gal/day respectively have been added to plant loop 'Domestic Hot Water Loop' and assigned to space 'living space'.",
            "step_info" : [],
            "step_result" : "Success",
            "step_values" : [
               {
                  "name" : "shower_mult",
                  "value" : 2
               },
               {
                  "name" : "sink_mult",
                  "value" : 2
               },
               {
                  "name" : "bath_mult",
                  "value" : 2
               },
               {
                  "name" : "plant_loop",
                  "value" : "auto"
               },
               {
                  "name" : "schedule_day_shift",
                  "value" : 66
               }
            ],
            "step_warnings" : []
         }
      },
      {
         "arguments" : {
            "dist_ins" : "0",
            "dist_layout" : "home run",
            "pipe_mat" : "pex",
            "recirc_type" : "none",
            "space" : "interior"
         },
         "measure_dir_name" : "ResidentialHotWaterDistribution",
         "result" : {
            "completed_at" : "20190716T221129Z",
            "measure_class_name" : "ResidentialHotWaterDistribution",
            "measure_display_name" : "Set Residential Hot Water Distribution",
            "measure_name" : "residential_hot_water_distribution",
            "measure_taxonomy" : "Service Water Heating.Distribution",
            "measure_type" : "ModelMeasure",
            "measure_uid" : "4615ccb7-3ce5-4627-b7c2-a7fea9c4af87",
            "measure_version_id" : "065b4593-563f-4fcb-a8d3-3b92d07bfec6",
            "measure_version_modified" : "20190701T173018Z",
            "measure_xml_checksum" : "D2231FB9",
            "started_at" : "20190716T221129Z",
            "stderr" : "",
            "stdout" : "[openstudio.model.YearDescription] <1> 'UseWeatherFile' is not yet a supported option for YearDescription\n",
            "step_errors" : [],
            "step_files" : [],
            "step_final_condition" : "A new pex, home run DHW distribution system has been assigned to the location interior of the home.",
            "step_info" : [],
            "step_result" : "Success",
            "step_values" : [
               {
                  "name" : "pipe_mat",
                  "value" : "pex"
               },
               {
                  "name" : "dist_layout",
                  "value" : "home run"
               },
               {
                  "name" : "space",
                  "value" : "interior"
               },
               {
                  "name" : "recirc_type",
                  "value" : "none"
               },
               {
                  "name" : "dist_ins",
                  "value" : 0
               }
            ],
            "step_warnings" : []
         }
      },
      {
         "arguments" : {
            "capacity" : "autosize",
            "crankcase_capacity" : "0.0",
            "crankcase_temp" : "55",
            "dse" : "NA",
            "eer" : "8.9",
            "eer_capacity_derate_1ton" : "1.0",
            "eer_capacity_derate_2ton" : "1.0",
            "eer_capacity_derate_3ton" : "1.0",
            "eer_capacity_derate_4ton" : "1.0",
            "eer_capacity_derate_5ton" : "1.0",
            "fan_power_installed" : "0.5",
            "fan_power_rated" : "0.365",
            "seer" : "10.0",
            "shr" : "0.73"
         },
         "measure_dir_name" : "ResidentialHVACCentralAirConditionerSingleSpeed",
         "result" : {
            "completed_at" : "20190716T221129Z",
            "measure_class_name" : "ProcessSingleSpeedCentralAirConditioner",
            "measure_display_name" : "Set Residential Single-Speed Central Air Conditioner",
            "measure_name" : "process_single_speed_central_air_conditioner",
            "measure_taxonomy" : "HVAC.Cooling",
            "measure_type" : "ModelMeasure",
            "measure_uid" : "62ef17da-be70-43a1-99ec-b000e016ba4a",
            "measure_version_id" : "8b492581-ccde-4f83-a281-c8cd0a425635",
            "measure_version_modified" : "20190701T173019Z",
            "measure_xml_checksum" : "9E2537CD",
            "started_at" : "20190716T221129Z",
            "stderr" : "",
            "stdout" : "",
            "step_errors" : [],
            "step_files" : [],
            "step_info" : [
               "Added 'res ac clg supply fan' to 'res ac unitary system' of 'res ac asys'",
               "Added 'res ac cooling coil' to 'res ac unitary system' of 'res ac asys'",
               "Added 'res ac asys' to 'living zone' of unit 1"
            ],
            "step_result" : "Success",
            "step_values" : [
               {
                  "name" : "seer",
                  "value" : 10
               },
               {
                  "name" : "eer",
                  "value" : 8.9000000000000004
               },
               {
                  "name" : "shr",
                  "value" : 0.72999999999999998
               },
               {
                  "name" : "fan_power_rated",
                  "value" : 0.36499999999999999
               },
               {
                  "name" : "fan_power_installed",
                  "value" : 0.5
               },
               {
                  "name" : "crankcase_capacity",
                  "value" : 0
               },
               {
                  "name" : "crankcase_temp",
                  "value" : 55
               },
               {
                  "name" : "eer_capacity_derate_1ton",
                  "value" : 1
               },
               {
                  "name" : "eer_capacity_derate_2ton",
                  "value" : 1
               },
               {
                  "name" : "eer_capacity_derate_3ton",
                  "value" : 1
               },
               {
                  "name" : "eer_capacity_derate_4ton",
                  "value" : 1
               },
               {
                  "name" : "eer_capacity_derate_5ton",
                  "value" : 1
               },
               {
                  "name" : "capacity",
                  "value" : "autosize"
               },
               {
                  "name" : "dse",
                  "value" : "NA"
               }
            ],
            "step_warnings" : []
         }
      },
      {
         "arguments" : {
            "afue" : "0.8",
            "capacity" : "autosize",
            "dse" : "NA",
            "fan_power_installed" : "0.5",
            "fuel_type" : "propane"
         },
         "measure_dir_name" : "ResidentialHVACFurnace",
         "result" : {
            "completed_at" : "20190716T221129Z",
            "measure_class_name" : "ProcessFurnace",
            "measure_display_name" : "Set Residential Furnace",
            "measure_name" : "process_furnace",
            "measure_taxonomy" : "HVAC.Heating",
            "measure_type" : "ModelMeasure",
            "measure_uid" : "1a71ae9e-5485-4cca-a369-16c6b8a9c1d8",
            "measure_version_id" : "a05878f5-d082-4dc4-8905-3d09c368f908",
            "measure_version_modified" : "20190701T173020Z",
            "measure_xml_checksum" : "470FC630",
            "started_at" : "20190716T221129Z",
            "stderr" : "",
            "stdout" : "",
            "step_errors" : [],
            "step_files" : [],
            "step_info" : [
               "Added 'res fur propane htg supply fan' to 'res fur propane unitary system' of 'res fur propane asys'",
               "Added 'res fur propane heating coil' to 'res fur propane unitary system' of 'res fur propane asys'",
               "Added 'res fur propane asys' to 'living zone' of unit 1"
            ],
            "step_result" : "Success",
            "step_values" : [
               {
                  "name" : "fuel_type",
                  "value" : "propane"
               },
               {
                  "name" : "afue",
                  "value" : 0.80000000000000004
               },
               {
                  "name" : "fan_power_installed",
                  "value" : 0.5
               },
               {
                  "name" : "capacity",
                  "value" : "autosize"
               },
               {
                  "name" : "dse",
                  "value" : "NA"
               }
            ],
            "step_warnings" : []
         }
      },
      {
         "arguments" : {
            "season_end_month" : "Dec",
            "season_start_month" : "Jan",
            "use_auto_season" : "false",
            "weekday_offset_magnitude" : "0",
            "weekday_offset_schedule" : "0,0,0,0,0,0,0,0,0,0,0,0,0,0,0,0,0,0,0,0,0,0,0,0",
            "weekday_setpoint" : "68",
            "weekend_offset_magnitude" : "0",
            "weekend_offset_schedule" : "0,0,0,0,0,0,0,0,0,0,0,0,0,0,0,0,0,0,0,0,0,0,0,0",
            "weekend_setpoint" : "68"
         },
         "measure_dir_name" : "ResidentialHVACHeatingSetpoints",
         "result" : {
            "completed_at" : "20190716T221130Z",
            "measure_class_name" : "ProcessHeatingSetpoints",
            "measure_display_name" : "Set Residential Heating Setpoints and Schedules",
            "measure_name" : "process_heating_setpoints",
            "measure_taxonomy" : "HVAC.HVAC Controls",
            "measure_type" : "ModelMeasure",
            "measure_uid" : "2b167665-f760-462d-8c9d-1d909da7b628",
            "measure_version_id" : "f62a0560-3fbd-4e23-bfc3-118d154029f4",
            "measure_version_modified" : "20190701T173020Z",
            "measure_xml_checksum" : "2C877DEB",
            "started_at" : "20190716T221129Z",
            "stderr" : "",
            "stdout" : "[openstudio.model.YearDescription] <1> 'UseWeatherFile' is not yet a supported option for YearDescription\n[openstudio.model.YearDescription] <1> 'UseWeatherFile' is not yet a supported option for YearDescription\n[openstudio.model.YearDescription] <1> 'UseWeatherFile' is not yet a supported option for YearDescription\n",
            "step_errors" : [],
            "step_files" : [],
            "step_info" : [
               "Created new thermostat living zone temperature setpoint for living zone.",
               "Set a dummy cooling setpoint schedule for living zone temperature setpoint.",
               "Set the heating setpoint schedule for living zone temperature setpoint."
            ],
            "step_result" : "Success",
            "step_values" : [
               {
                  "name" : "weekday_setpoint",
                  "value" : "68"
               },
               {
                  "name" : "weekend_setpoint",
                  "value" : "68"
               },
               {
                  "name" : "weekday_offset_magnitude",
                  "value" : 0
               },
               {
                  "name" : "weekend_offset_magnitude",
                  "value" : 0
               },
               {
                  "name" : "weekday_offset_schedule",
                  "value" : "0,0,0,0,0,0,0,0,0,0,0,0,0,0,0,0,0,0,0,0,0,0,0,0"
               },
               {
                  "name" : "weekend_offset_schedule",
                  "value" : "0,0,0,0,0,0,0,0,0,0,0,0,0,0,0,0,0,0,0,0,0,0,0,0"
               },
               {
                  "name" : "use_auto_season",
                  "value" : false
               },
               {
                  "name" : "season_start_month",
                  "value" : "Jan"
               },
               {
                  "name" : "season_end_month",
                  "value" : "Dec"
               }
            ],
            "step_warnings" : []
         }
      },
      {
         "arguments" : {
            "season_end_month" : "Dec",
            "season_start_month" : "Jan",
            "use_auto_season" : "false",
            "weekday_offset_magnitude" : "0",
            "weekday_offset_schedule" : "0,0,0,0,0,0,0,0,0,0,0,0,0,0,0,0,0,0,0,0,0,0,0,0",
            "weekday_setpoint" : "73",
            "weekend_offset_magnitude" : "0",
            "weekend_offset_schedule" : "0,0,0,0,0,0,0,0,0,0,0,0,0,0,0,0,0,0,0,0,0,0,0,0",
            "weekend_setpoint" : "73"
         },
         "measure_dir_name" : "ResidentialHVACCoolingSetpoints",
         "result" : {
            "completed_at" : "20190716T221130Z",
            "measure_class_name" : "ProcessCoolingSetpoints",
            "measure_display_name" : "Set Residential Cooling Setpoints and Schedules",
            "measure_name" : "process_cooling_setpoints",
            "measure_taxonomy" : "HVAC.HVAC Controls",
            "measure_type" : "ModelMeasure",
            "measure_uid" : "2daa9d28-8891-4074-a1d1-bce3cb3d7ac6",
            "measure_version_id" : "471f1d0e-ad9b-464f-aa90-3fc4d555a82e",
            "measure_version_modified" : "20190701T173020Z",
            "measure_xml_checksum" : "356BE47F",
            "started_at" : "20190716T221130Z",
            "stderr" : "",
            "stdout" : "[openstudio.model.YearDescription] <1> 'UseWeatherFile' is not yet a supported option for YearDescription\n[openstudio.model.YearDescription] <1> 'UseWeatherFile' is not yet a supported option for YearDescription\n[openstudio.model.YearDescription] <1> 'UseWeatherFile' is not yet a supported option for YearDescription\n",
            "step_errors" : [],
            "step_files" : [],
            "step_info" : [
               "Found existing thermostat living zone temperature setpoint for living zone.",
               "Set the cooling setpoint schedule for living zone temperature setpoint."
            ],
            "step_result" : "Success",
            "step_values" : [
               {
                  "name" : "weekday_setpoint",
                  "value" : "73"
               },
               {
                  "name" : "weekend_setpoint",
                  "value" : "73"
               },
               {
                  "name" : "weekday_offset_magnitude",
                  "value" : 0
               },
               {
                  "name" : "weekend_offset_magnitude",
                  "value" : 0
               },
               {
                  "name" : "weekday_offset_schedule",
                  "value" : "0,0,0,0,0,0,0,0,0,0,0,0,0,0,0,0,0,0,0,0,0,0,0,0"
               },
               {
                  "name" : "weekend_offset_schedule",
                  "value" : "0,0,0,0,0,0,0,0,0,0,0,0,0,0,0,0,0,0,0,0,0,0,0,0"
               },
               {
                  "name" : "use_auto_season",
[...]
               {
                  "name" : "pool_scale_energy",
                  "value" : true
               },
               {
                  "name" : "pool_weekday_sch",
                  "value" : "0.003, 0.003, 0.003, 0.004, 0.008, 0.015, 0.026, 0.044, 0.084, 0.121, 0.127, 0.121, 0.120, 0.090, 0.075, 0.061, 0.037, 0.023, 0.013, 0.008, 0.004, 0.003, 0.003, 0.003"
               },
               {
                  "name" : "pool_weekend_sch",
                  "value" : "0.003, 0.003, 0.003, 0.004, 0.008, 0.015, 0.026, 0.044, 0.084, 0.121, 0.127, 0.121, 0.120, 0.090, 0.075, 0.061, 0.037, 0.023, 0.013, 0.008, 0.004, 0.003, 0.003, 0.003"
               },
               {
                  "name" : "pool_monthly_sch",
                  "value" : "1.154, 1.161, 1.013, 1.010, 1.013, 0.888, 0.883, 0.883, 0.888, 0.978, 0.974, 1.154"
               },
               {
                  "name" : "hot_tub_heater_elec_annual_energy",
                  "value" : 1027.3
               },
               {
                  "name" : "hot_tub_heater_elec_mult",
                  "value" : 0.048000000000000001
               },
               {
                  "name" : "hot_tub_heater_gas_annual_energy",
                  "value" : 81
               },
               {
                  "name" : "hot_tub_heater_gas_mult",
                  "value" : 0.010999999999999999
               },
               {
                  "name" : "hot_tub_pump_annual_energy",
                  "value" : 1014.1
               },
               {
                  "name" : "hot_tub_pump_mult",
                  "value" : 0.058999999999999997
               },
               {
                  "name" : "hot_tub_scale_energy",
                  "value" : true
               },
               {
                  "name" : "hot_tub_weekday_sch",
                  "value" : "0.024, 0.029, 0.024, 0.029, 0.047, 0.067, 0.057, 0.024, 0.024, 0.019, 0.015, 0.014, 0.014, 0.014, 0.024, 0.058, 0.126, 0.122, 0.068, 0.061, 0.051, 0.043, 0.024, 0.024"
               },
               {
                  "name" : "hot_tub_weekend_sch",
                  "value" : "0.024, 0.029, 0.024, 0.029, 0.047, 0.067, 0.057, 0.024, 0.024, 0.019, 0.015, 0.014, 0.014, 0.014, 0.024, 0.058, 0.126, 0.122, 0.068, 0.061, 0.051, 0.043, 0.024, 0.024"
               },
               {
                  "name" : "hot_tub_monthly_sch",
                  "value" : "0.921, 0.928, 0.921, 0.915, 0.921, 1.160, 1.158, 1.158, 1.160, 0.921, 0.915, 0.921"
               },
               {
                  "name" : "well_pump_annual_energy",
                  "value" : 400
               },
               {
                  "name" : "well_pump_mult",
                  "value" : 0.127
               },
               {
                  "name" : "well_pump_scale_energy",
                  "value" : true
               },
               {
                  "name" : "well_pump_weekday_sch",
                  "value" : "0.044, 0.023, 0.019, 0.015, 0.016, 0.018, 0.026, 0.033, 0.033, 0.032, 0.033, 0.033, 0.032, 0.032, 0.032, 0.033, 0.045, 0.057, 0.066, 0.076, 0.081, 0.086, 0.075, 0.065"
               },
               {
                  "name" : "well_pump_weekend_sch",
                  "value" : "0.044, 0.023, 0.019, 0.015, 0.016, 0.018, 0.026, 0.033, 0.033, 0.032, 0.033, 0.033, 0.032, 0.032, 0.032, 0.033, 0.045, 0.057, 0.066, 0.076, 0.081, 0.086, 0.075, 0.065"
               },
               {
                  "name" : "well_pump_monthly_sch",
                  "value" : "1.154, 1.161, 1.013, 1.010, 1.013, 0.888, 0.883, 0.883, 0.888, 0.978, 0.974, 1.154"
               },
               {
                  "name" : "gas_fireplace_annual_energy",
                  "value" : 60
               },
               {
                  "name" : "gas_fireplace_mult",
                  "value" : 0.032000000000000001
               },
               {
                  "name" : "gas_fireplace_scale_energy",
                  "value" : true
               },
               {
                  "name" : "gas_fireplace_weekday_sch",
                  "value" : "0.044, 0.023, 0.019, 0.015, 0.016, 0.018, 0.026, 0.033, 0.033, 0.032, 0.033, 0.033, 0.032, 0.032, 0.032, 0.033, 0.045, 0.057, 0.066, 0.076, 0.081, 0.086, 0.075, 0.065"
               },
               {
                  "name" : "gas_fireplace_weekend_sch",
                  "value" : "0.044, 0.023, 0.019, 0.015, 0.016, 0.018, 0.026, 0.033, 0.033, 0.032, 0.033, 0.033, 0.032, 0.032, 0.032, 0.033, 0.045, 0.057, 0.066, 0.076, 0.081, 0.086, 0.075, 0.065"
               },
               {
                  "name" : "gas_fireplace_monthly_sch",
                  "value" : "1.154, 1.161, 1.013, 1.010, 1.013, 0.888, 0.883, 0.883, 0.888, 0.978, 0.974, 1.154"
               },
               {
                  "name" : "gas_fireplace_location",
                  "value" : "auto"
               },
               {
                  "name" : "gas_grill_annual_energy",
                  "value" : 30
               },
               {
                  "name" : "gas_grill_mult",
                  "value" : 0.029000000000000001
               },
               {
                  "name" : "gas_grill_scale_energy",
                  "value" : true
               },
               {
                  "name" : "gas_grill_weekday_sch",
                  "value" : "0.004, 0.001, 0.001, 0.002, 0.007, 0.012, 0.029, 0.046, 0.044, 0.041, 0.044, 0.046, 0.042, 0.038, 0.049, 0.059, 0.110, 0.161, 0.115, 0.070, 0.044, 0.019, 0.013, 0.007"
               },
               {
                  "name" : "gas_grill_weekend_sch",
                  "value" : "0.004, 0.001, 0.001, 0.002, 0.007, 0.012, 0.029, 0.046, 0.044, 0.041, 0.044, 0.046, 0.042, 0.038, 0.049, 0.059, 0.110, 0.161, 0.115, 0.070, 0.044, 0.019, 0.013, 0.007"
               },
               {
                  "name" : "gas_grill_monthly_sch",
                  "value" : "1.097, 1.097, 0.991, 0.987, 0.991, 0.890, 0.896, 0.896, 0.890, 1.085, 1.085, 1.097"
               },
               {
                  "name" : "gas_lighting_annual_energy",
                  "value" : 19
               },
               {
                  "name" : "gas_lighting_mult",
                  "value" : 0.012
               },
               {
                  "name" : "gas_lighting_scale_energy",
                  "value" : true
               },
               {
                  "name" : "gas_lighting_weekday_sch",
                  "value" : "0.044, 0.023, 0.019, 0.015, 0.016, 0.018, 0.026, 0.033, 0.033, 0.032, 0.033, 0.033, 0.032, 0.032, 0.032, 0.033, 0.045, 0.057, 0.066, 0.076, 0.081, 0.086, 0.075, 0.065"
               },
               {
                  "name" : "gas_lighting_weekend_sch",
                  "value" : "0.044, 0.023, 0.019, 0.015, 0.016, 0.018, 0.026, 0.033, 0.033, 0.032, 0.033, 0.033, 0.032, 0.032, 0.032, 0.033, 0.045, 0.057, 0.066, 0.076, 0.081, 0.086, 0.075, 0.065"
               },
               {
                  "name" : "gas_lighting_monthly_sch",
                  "value" : "1.154, 1.161, 1.013, 1.010, 1.013, 0.888, 0.883, 0.883, 0.888, 0.978, 0.974, 1.154"
               },
               {
                  "name" : "ev_annual_energy",
                  "value" : 0
               },
               {
                  "name" : "ev_charger_mult",
                  "value" : 1
               },
               {
                  "name" : "ev_charger_weekday_sch",
                  "value" : "0.042, 0.042, 0.042, 0.042, 0.042, 0.042, 0.042, 0.042, 0.042, 0.042, 0.042, 0.042, 0.042, 0.042, 0.042, 0.042, 0.042, 0.042, 0.042, 0.042, 0.042, 0.042, 0.042, 0.042"
               },
               {
                  "name" : "ev_charger_weekend_sch",
                  "value" : "0.042, 0.042, 0.042, 0.042, 0.042, 0.042, 0.042, 0.042, 0.042, 0.042, 0.042, 0.042, 0.042, 0.042, 0.042, 0.042, 0.042, 0.042, 0.042, 0.042, 0.042, 0.042, 0.042, 0.042"
               },
               {
                  "name" : "ev_charger_monthly_sch",
                  "value" : "1, 1, 1, 1, 1, 1, 1, 1, 1, 1, 1, 1"
               }
            ],
            "step_warnings" : []
         }
      },
      {
         "arguments" : {
            "bathroom_exhaust_hour" : "22",
            "clothes_dryer_exhaust" : "100",
            "crawl_ach" : "0",
            "duct_ah_return_frac" : "0.267",
            "duct_ah_supply_frac" : "0.067",
            "duct_location" : "auto",
            "duct_location_frac" : "auto",
            "duct_num_returns" : "auto",
            "duct_r" : "6",
            "duct_return_area_mult" : "1",
            "duct_return_frac" : "0.067",
            "duct_supply_area_mult" : "1",
            "duct_supply_frac" : "0.6",
            "duct_total_leakage" : "0.3",
            "finished_basement_ach" : "0",
            "garage_ach50" : "4",
            "has_fireplace_chimney" : "false",
            "has_hvac_flue" : "true",
            "has_water_heater_flue" : "false",
            "is_existing_home" : "true",
            "living_ach50" : "4",
            "mech_vent_ashrae_std" : "2010",
            "mech_vent_cfis_airflow_frac" : "1.0",
            "mech_vent_cfis_open_time" : "20.0",
            "mech_vent_fan_power" : "0",
            "mech_vent_frac_62_2" : "0",
            "mech_vent_infil_credit" : "false",
            "mech_vent_sensible_efficiency" : "0",
            "mech_vent_total_efficiency" : "0",
            "mech_vent_type" : "none",
            "nat_vent_clg_offset" : "1",
            "nat_vent_clg_season" : "true",
            "nat_vent_frac_window_area_openable" : "0.2",
            "nat_vent_frac_windows_open" : "0.33",
            "nat_vent_htg_offset" : "1",
            "nat_vent_htg_season" : "true",
            "nat_vent_max_oa_hr" : "0.0115",
            "nat_vent_max_oa_rh" : "0.7",
            "nat_vent_num_weekdays" : "3",
            "nat_vent_num_weekends" : "0",
            "nat_vent_ovlp_offset" : "1",
            "nat_vent_ovlp_season" : "true",
            "pier_beam_ach" : "100",
            "range_exhaust_hour" : "13",
            "shelter_coef" : "auto",
            "terrain" : "suburban",
            "unfinished_attic_sla" : "0.00333",
            "unfinished_basement_ach" : "0.1"
         },
         "measure_dir_name" : "ResidentialAirflow",
         "result" : {
            "completed_at" : "20190716T221133Z",
            "measure_class_name" : "ResidentialAirflow",
            "measure_display_name" : "Set Residential Airflow",
            "measure_name" : "residential_airflow",
            "measure_taxonomy" : "Envelope.Infiltration",
            "measure_type" : "ModelMeasure",
            "measure_uid" : "7d2adf5c-9995-49be-b662-a23d2452bb36",
            "measure_version_id" : "5600e787-9f5e-4ec1-b67e-b3bf34698537",
            "measure_version_modified" : "20190701T173015Z",
            "measure_xml_checksum" : "19EEDBBB",
            "started_at" : "20190716T221132Z",
            "stderr" : "",
            "stdout" : "[openstudio.model.YearDescription] <1> 'UseWeatherFile' is not yet a supported option for YearDescription\n[openstudio.model.YearDescription] <1> 'UseWeatherFile' is not yet a supported option for YearDescription\n[openstudio.model.YearDescription] <1> 'UseWeatherFile' is not yet a supported option for YearDescription\n[openstudio.model.YearDescription] <1> 'UseWeatherFile' is not yet a supported option for YearDescription\n[openstudio.model.YearDescription] <1> 'UseWeatherFile' is not yet a supported option for YearDescription\n",
            "step_errors" : [],
            "step_files" : [],
            "step_info" : [
               "Created ducts for res ac asys.",
               "Created ducts for res fur propane asys."
            ],
            "step_result" : "Success",
            "step_values" : [
               {
                  "name" : "living_ach50",
                  "value" : 4
               },
               {
                  "name" : "garage_ach50",
                  "value" : 4
               },
               {
                  "name" : "finished_basement_ach",
                  "value" : 0
               },
               {
                  "name" : "unfinished_basement_ach",
                  "value" : 0.10000000000000001
               },
               {
                  "name" : "crawl_ach",
                  "value" : 0
               },
               {
                  "name" : "pier_beam_ach",
                  "value" : 100
               },
               {
                  "name" : "unfinished_attic_sla",
                  "value" : 0.0033300000000000001
               },
               {
                  "name" : "shelter_coef",
                  "value" : "auto"
               },
               {
                  "name" : "has_hvac_flue",
                  "value" : true
               },
               {
                  "name" : "has_water_heater_flue",
                  "value" : false
               },
               {
                  "name" : "has_fireplace_chimney",
                  "value" : false
               },
               {
                  "name" : "terrain",
                  "value" : "suburban"
               },
               {
                  "name" : "mech_vent_type",
                  "value" : "none"
               },
               {
                  "name" : "mech_vent_fan_power",
                  "value" : 0
               },
               {
                  "name" : "mech_vent_total_efficiency",
                  "value" : 0
               },
               {
                  "name" : "mech_vent_sensible_efficiency",
                  "value" : 0
               },
               {
                  "name" : "mech_vent_frac_62_2",
                  "value" : 0
               },
               {
                  "name" : "mech_vent_ashrae_std",
                  "value" : "2010"
               },
               {
                  "name" : "mech_vent_infil_credit",
                  "value" : false
               },
               {
                  "name" : "is_existing_home",
                  "value" : true
               },
               {
                  "name" : "mech_vent_cfis_open_time",
                  "value" : 20
               },
               {
                  "name" : "mech_vent_cfis_airflow_frac",
                  "value" : 1
               },
               {
                  "name" : "range_exhaust_hour",
                  "value" : 13
               },
               {
                  "name" : "bathroom_exhaust_hour",
                  "value" : 22
               },
               {
                  "name" : "clothes_dryer_exhaust",
                  "value" : 100
               },
               {
                  "name" : "nat_vent_htg_offset",
                  "value" : 1
               },
               {
                  "name" : "nat_vent_clg_offset",
                  "value" : 1
               },
               {
                  "name" : "nat_vent_ovlp_offset",
                  "value" : 1
               },
               {
                  "name" : "nat_vent_htg_season",
                  "value" : true
               },
               {
                  "name" : "nat_vent_clg_season",
                  "value" : true
               },
               {
                  "name" : "nat_vent_ovlp_season",
                  "value" : true
               },
               {
                  "name" : "nat_vent_num_weekdays",
                  "value" : 3
               },
               {
                  "name" : "nat_vent_num_weekends",
                  "value" : 0
               },
               {
                  "name" : "nat_vent_frac_windows_open",
                  "value" : 0.33000000000000002
               },
               {
                  "name" : "nat_vent_frac_window_area_openable",
                  "value" : 0.20000000000000001
               },
               {
                  "name" : "nat_vent_max_oa_hr",
                  "value" : 0.0115
               },
               {
                  "name" : "nat_vent_max_oa_rh",
                  "value" : 0.69999999999999996
               },
               {
                  "name" : "duct_location",
                  "value" : "auto"
               },
               {
                  "name" : "duct_total_leakage",
                  "value" : 0.29999999999999999
               },
               {
                  "name" : "duct_supply_frac",
                  "value" : 0.59999999999999998
               },
               {
                  "name" : "duct_return_frac",
                  "value" : 0.067000000000000004
               },
               {
                  "name" : "duct_ah_supply_frac",
                  "value" : 0.067000000000000004
               },
               {
                  "name" : "duct_ah_return_frac",
                  "value" : 0.26700000000000002
               },
               {
                  "name" : "duct_location_frac",
                  "value" : "auto"
               },
               {
                  "name" : "duct_num_returns",
                  "value" : "auto"
               },
               {
                  "name" : "duct_supply_area_mult",
                  "value" : 1
               },
               {
                  "name" : "duct_return_area_mult",
                  "value" : 1
               },
               {
                  "name" : "duct_r",
                  "value" : 6
               }
            ],
            "step_warnings" : []
         }
      },
      {
         "arguments" : {
            "show_debug_info" : "false"
         },
         "measure_dir_name" : "ResidentialHVACSizing",
         "result" : {
            "completed_at" : "20190716T221133Z",
            "measure_class_name" : "ProcessHVACSizing",
            "measure_display_name" : "Set Residential HVAC Sizing",
            "measure_name" : "process_hvac_sizing",
            "measure_taxonomy" : "HVAC.HVAC Controls",
            "measure_type" : "ModelMeasure",
            "measure_uid" : "6cd70740-6ca3-4575-8b1e-663976e254d0",
            "measure_version_id" : "86dc85ce-8743-4ffa-9215-c1e898f8130b",
            "measure_version_modified" : "20190701T173020Z",
            "measure_xml_checksum" : "356BE47F",
            "started_at" : "20190716T221133Z",
            "stderr" : "",
            "stdout" : "[openstudio.model.YearDescription] <1> 'UseWeatherFile' is not yet a supported option for YearDescription\n[openstudio.model.YearDescription] <1> 'UseWeatherFile' is not yet a supported option for YearDescription\n[openstudio.model.YearDescription] <1> 'UseWeatherFile' is not yet a supported option for YearDescription\n[openstudio.model.YearDescription] <1> 'UseWeatherFile' is not yet a supported option for YearDescription\n[openstudio.model.YearDescription] <1> 'UseWeatherFile' is not yet a supported option for YearDescription\n[openstudio.model.YearDescription] <1> 'UseWeatherFile' is not yet a supported option for YearDescription\n[openstudio.model.YearDescription] <1> 'UseWeatherFile' is not yet a supported option for YearDescription\n",
            "step_errors" : [],
            "step_files" : [],
            "step_final_condition" : "HVAC objects updated as appropriate.",
            "step_info" : [
               "Added heating/cooling design days for autosizing.",
               "Found central air conditioner in living zone.",
               "Found furnace in living zone."
            ],
            "step_result" : "Success",
            "step_values" : [
               {
                  "name" : "show_debug_info",
                  "value" : false
               }
            ],
            "step_warnings" : []
         }
      }
   ],
   "updated_at" : "20190716T221210Z"
}
